<?xml version="1.0" encoding="UTF-8"?>

<!-- generated on Tue Apr 14 10:06:25 2020 by Eclipse SUMO netconvert Version 1.1.0
<configuration xmlns:xsi="http://www.w3.org/2001/XMLSchema-instance" xsi:noNamespaceSchemaLocation="http://sumo.dlr.de/xsd/netconvertConfiguration.xsd">

    <input>
        <type-files value="rail.typ.xml"/>
        <osm-files value="aschaffenburg-bahnhof.osm"/>
    </input>

    <output>
        <output-file value="aschaffenburg-bahnhof.net.xml"/>
    </output>

    <projection>
        <proj.utm value="true"/>
    </projection>

</configuration>
-->

<net version="1.1" junctionCornerDetail="5" limitTurnSpeed="5.50" xmlns:xsi="http://www.w3.org/2001/XMLSchema-instance" xsi:noNamespaceSchemaLocation="http://sumo.dlr.de/xsd/net_file.xsd">

    <location netOffset="-509145.34,-5536247.73" convBoundary="0.00,0.00,2647.94,760.87" origBoundary="9.121056,49.961458,9.166999,49.985329" projParameter="+proj=utm +zone=32 +ellps=WGS84 +datum=WGS84 +units=m +no_defs"/>

    <type id="railway.rail" oneway="0"/>

    <edge id=":107094935_0" function="internal">
        <lane id=":107094935_0_0" index="0" speed="3.65" length="4.67" shape="2306.53,-0.80 2307.82,-1.44 2308.72,-1.39 2309.21,-0.64 2309.30,0.80"/>
    </edge>
    <edge id=":1191181602_0" function="internal">
        <lane id=":1191181602_0_0" index="0" speed="13.89" length="0.11" shape="1752.79,244.58 1752.68,244.56"/>
    </edge>
    <edge id=":1191181602_1" function="internal">
        <lane id=":1191181602_1_0" index="0" speed="3.65" length="2.34" shape="1752.79,244.58 1751.75,243.57 1751.51,242.71"/>
    </edge>
    <edge id=":1191181602_4" function="internal">
        <lane id=":1191181602_4_0" index="0" speed="3.65" length="2.34" shape="1751.51,242.71 1752.04,242.00 1753.37,241.43"/>
    </edge>
    <edge id=":1191181602_2" function="internal">
        <lane id=":1191181602_2_0" index="0" speed="13.89" length="0.33" shape="1753.05,241.38 1753.37,241.43"/>
    </edge>
    <edge id=":1191181602_3" function="internal">
        <lane id=":1191181602_3_0" index="0" speed="3.65" length="2.34" shape="1753.05,241.38 1754.15,242.31 1754.45,243.15"/>
    </edge>
    <edge id=":1191181602_5" function="internal">
        <lane id=":1191181602_5_0" index="0" speed="3.65" length="2.34" shape="1754.45,243.15 1753.97,243.90 1752.68,244.56"/>
    </edge>
    <edge id=":1191181606_0" function="internal">
        <lane id=":1191181606_0_0" index="0" speed="3.65" length="4.67" shape="1368.36,187.75 1367.12,187.01 1366.69,186.23 1367.05,185.41 1368.21,184.56"/>
    </edge>
    <edge id=":1191181616_0" function="internal">
        <lane id=":1191181616_0_0" index="0" speed="13.89" length="7.20" shape="1515.89,197.65 1513.88,196.92 1512.49,196.47 1511.07,196.12 1508.97,195.70"/>
    </edge>
    <edge id=":1191181616_1" function="internal">
        <lane id=":1191181616_1_0" index="0" speed="13.89" length="7.24" shape="1515.89,197.65 1509.08,195.18"/>
    </edge>
    <edge id=":1191181616_2" function="internal">
        <lane id=":1191181616_2_0" index="0" speed="3.65" length="2.34" shape="1515.89,197.65 1515.04,196.48 1514.94,195.59"/>
    </edge>
    <edge id=":1191181616_9" function="internal">
        <lane id=":1191181616_9_0" index="0" speed="3.65" length="2.34" shape="1514.94,195.59 1515.60,194.98 1517.00,194.65"/>
    </edge>
    <edge id=":1191181616_3" function="internal">
        <lane id=":1191181616_3_0" index="0" speed="13.89" length="7.73" shape="1509.73,192.02 1517.00,194.65"/>
    </edge>
    <edge id=":1191181616_4" function="internal">
        <lane id=":1191181616_4_0" index="0" speed="5.99" length="8.51" shape="1509.73,192.02 1514.97,194.27 1516.56,195.84 1516.02,196.00"/>
    </edge>
    <edge id=":1191181616_5" function="internal">
        <lane id=":1191181616_5_0" index="0" speed="3.66" length="2.60" shape="1509.73,192.02 1510.75,193.05 1510.99,193.93 1510.84,194.12"/>
    </edge>
    <edge id=":1191181616_10" function="internal">
        <lane id=":1191181616_10_0" index="0" speed="5.99" length="7.15" shape="1516.02,196.00 1514.55,196.42 1508.97,195.70"/>
    </edge>
    <edge id=":1191181616_11" function="internal">
        <lane id=":1191181616_11_0" index="0" speed="3.66" length="2.11" shape="1510.84,194.12 1510.43,194.64 1509.08,195.18"/>
    </edge>
    <edge id=":1191181616_6" function="internal">
        <lane id=":1191181616_6_0" index="0" speed="13.89" length="7.69" shape="1509.62,192.56 1511.85,193.02 1513.37,193.39 1514.86,193.87 1517.00,194.65"/>
    </edge>
    <edge id=":1191181616_7" function="internal">
        <lane id=":1191181616_7_0" index="0" speed="6.52" length="18.95" shape="1509.62,192.56 1502.72,191.36 1500.33,191.39 1502.45,192.67 1509.08,195.18"/>
    </edge>
    <edge id=":1191181616_8" function="internal">
        <lane id=":1191181616_8_0" index="0" speed="3.65" length="4.67" shape="1509.62,192.56 1510.63,193.59 1510.86,194.45 1510.31,195.16 1508.97,195.70"/>
    </edge>
    <edge id=":1191181620_0" function="internal">
        <lane id=":1191181620_0_0" index="0" speed="13.89" length="7.89" shape="1552.27,211.20 1550.08,210.38 1548.56,209.86 1547.02,209.43 1544.74,208.89"/>
    </edge>
    <edge id=":1191181620_1" function="internal">
        <lane id=":1191181620_1_0" index="0" speed="13.89" length="7.92" shape="1552.27,211.20 1544.85,208.42"/>
    </edge>
    <edge id=":1191181620_2" function="internal">
        <lane id=":1191181620_2_0" index="0" speed="5.94" length="0.42" shape="1552.27,211.20 1551.89,211.02"/>
    </edge>
    <edge id=":1191181620_3" function="internal">
        <lane id=":1191181620_3_0" index="0" speed="3.66" length="2.50" shape="1552.27,211.20 1551.33,210.10 1551.16,209.22 1551.26,209.11"/>
    </edge>
    <edge id=":1191181620_16" function="internal">
        <lane id=":1191181620_16_0" index="0" speed="5.94" length="15.24" shape="1551.89,211.02 1547.12,208.80 1545.63,207.15 1547.70,206.68 1553.23,207.76"/>
    </edge>
    <edge id=":1191181620_17" function="internal">
        <lane id=":1191181620_17_0" index="0" speed="3.66" length="2.20" shape="1551.26,209.11 1551.76,208.56 1553.13,208.11"/>
    </edge>
    <edge id=":1191181620_4" function="internal">
        <lane id=":1191181620_4_0" index="0" speed="13.89" length="7.88" shape="1552.37,210.84 1544.74,208.89"/>
    </edge>
    <edge id=":1191181620_5" function="internal">
        <lane id=":1191181620_5_0" index="0" speed="13.89" length="7.90" shape="1552.37,210.84 1544.85,208.42"/>
    </edge>
    <edge id=":1191181620_6" function="internal">
        <lane id=":1191181620_6_0" index="0" speed="8.10" length="31.04" shape="1552.37,210.84 1563.57,213.75 1567.43,214.27 1563.95,212.39 1553.13,208.11"/>
    </edge>
    <edge id=":1191181620_7" function="internal">
        <lane id=":1191181620_7_0" index="0" speed="3.65" length="4.67" shape="1552.37,210.84 1551.43,209.75 1551.26,208.87 1551.86,208.21 1553.23,207.76"/>
    </edge>
    <edge id=":1191181620_8" function="internal">
        <lane id=":1191181620_8_0" index="0" speed="13.89" length="8.02" shape="1545.61,205.29 1553.23,207.76"/>
    </edge>
    <edge id=":1191181620_9" function="internal">
        <lane id=":1191181620_9_0" index="0" speed="13.89" length="8.04" shape="1545.61,205.29 1553.13,208.11"/>
    </edge>
    <edge id=":1191181620_10" function="internal">
        <lane id=":1191181620_10_0" index="0" speed="5.97" length="0.37" shape="1545.61,205.29 1545.95,205.44"/>
    </edge>
    <edge id=":1191181620_11" function="internal">
        <lane id=":1191181620_11_0" index="0" speed="3.66" length="2.56" shape="1545.61,205.29 1546.59,206.35 1546.80,207.23 1546.66,207.39"/>
    </edge>
    <edge id=":1191181620_18" function="internal">
        <lane id=":1191181620_18_0" index="0" speed="5.97" length="15.30" shape="1545.95,205.44 1550.79,207.64 1552.34,209.25 1550.30,209.78 1544.74,208.89"/>
    </edge>
    <edge id=":1191181620_19" function="internal">
        <lane id=":1191181620_19_0" index="0" speed="3.66" length="2.14" shape="1546.66,207.39 1546.22,207.92 1544.85,208.42"/>
    </edge>
    <edge id=":1191181620_12" function="internal">
        <lane id=":1191181620_12_0" index="0" speed="13.89" length="7.99" shape="1545.49,205.78 1553.23,207.76"/>
    </edge>
    <edge id=":1191181620_13" function="internal">
        <lane id=":1191181620_13_0" index="0" speed="13.89" length="8.00" shape="1545.49,205.78 1547.80,206.33 1549.37,206.76 1550.91,207.28 1553.13,208.11"/>
    </edge>
    <edge id=":1191181620_14" function="internal">
        <lane id=":1191181620_14_0" index="0" speed="6.95" length="22.00" shape="1545.49,205.78 1537.51,204.07 1534.75,203.94 1537.19,205.39 1544.85,208.42"/>
    </edge>
    <edge id=":1191181620_15" function="internal">
        <lane id=":1191181620_15_0" index="0" speed="3.65" length="4.67" shape="1545.49,205.78 1546.47,206.83 1546.67,207.71 1546.09,208.39 1544.74,208.89"/>
    </edge>
    <edge id=":1191181623_0" function="internal">
        <lane id=":1191181623_0_0" index="0" speed="3.65" length="4.67" shape="1367.78,183.35 1366.55,182.60 1366.11,181.82 1366.48,181.00 1367.64,180.15"/>
    </edge>
    <edge id=":1191181639_0" function="internal">
        <lane id=":1191181639_0_0" index="0" speed="3.65" length="4.67" shape="1367.41,179.12 1366.18,178.38 1365.74,177.60 1366.11,176.78 1367.27,175.93"/>
    </edge>
    <edge id=":1191181652_0" function="internal">
        <lane id=":1191181652_0_0" index="0" speed="13.89" length="8.00" shape="1645.56,232.33 1637.60,231.47"/>
    </edge>
    <edge id=":1191181652_1" function="internal">
        <lane id=":1191181652_1_0" index="0" speed="13.89" length="8.03" shape="1645.56,232.33 1643.19,232.05 1641.58,231.82 1639.98,231.50 1637.66,230.97"/>
    </edge>
    <edge id=":1191181652_2" function="internal">
        <lane id=":1191181652_2_0" index="0" speed="3.65" length="2.34" shape="1645.56,232.33 1644.46,231.40 1644.15,230.56"/>
    </edge>
    <edge id=":1191181652_9" function="internal">
        <lane id=":1191181652_9_0" index="0" speed="3.65" length="2.34" shape="1644.15,230.56 1644.64,229.81 1645.92,229.15"/>
    </edge>
    <edge id=":1191181652_3" function="internal">
        <lane id=":1191181652_3_0" index="0" speed="13.89" length="8.05" shape="1638.00,227.77 1640.33,228.30 1641.93,228.63 1643.55,228.87 1645.92,229.15"/>
    </edge>
    <edge id=":1191181652_4" function="internal">
        <lane id=":1191181652_4_0" index="0" speed="5.97" length="15.68" shape="1638.00,227.77 1643.45,229.43 1645.19,230.84 1643.23,231.64 1637.60,231.47"/>
    </edge>
    <edge id=":1191181652_5" function="internal">
        <lane id=":1191181652_5_0" index="0" speed="3.66" length="4.71" shape="1638.00,227.77 1639.12,228.70 1639.43,229.54 1638.94,230.30 1637.66,230.97"/>
    </edge>
    <edge id=":1191181652_6" function="internal">
        <lane id=":1191181652_6_0" index="0" speed="13.89" length="8.02" shape="1637.95,228.28 1645.92,229.15"/>
    </edge>
    <edge id=":1191181652_7" function="internal">
        <lane id=":1191181652_7_0" index="0" speed="3.13" length="2.70" shape="1637.95,228.28 1637.66,230.97"/>
    </edge>
    <edge id=":1191181652_8" function="internal">
        <lane id=":1191181652_8_0" index="0" speed="3.65" length="2.34" shape="1637.95,228.28 1639.05,229.21 1639.37,230.05"/>
    </edge>
    <edge id=":1191181652_10" function="internal">
        <lane id=":1191181652_10_0" index="0" speed="3.65" length="2.34" shape="1639.37,230.05 1638.88,230.80 1637.60,231.47"/>
    </edge>
    <edge id=":1191181735_0" function="internal">
        <lane id=":1191181735_0_0" index="0" speed="22.22" length="0.31" shape="1122.46,233.19 1122.15,233.20"/>
    </edge>
    <edge id=":1191181735_1" function="internal">
        <lane id=":1191181735_1_0" index="0" speed="3.65" length="2.34" shape="1122.46,233.19 1121.22,232.45 1120.78,231.67"/>
    </edge>
    <edge id=":1191181735_4" function="internal">
        <lane id=":1191181735_4_0" index="0" speed="3.65" length="2.34" shape="1120.78,231.67 1121.14,230.85 1122.30,229.99"/>
    </edge>
    <edge id=":1191181735_2" function="internal">
        <lane id=":1191181735_2_0" index="0" speed="22.22" length="0.29" shape="1122.02,230.01 1122.30,229.99"/>
    </edge>
    <edge id=":1191181735_3" function="internal">
        <lane id=":1191181735_3_0" index="0" speed="3.65" length="2.34" shape="1122.02,230.01 1123.25,230.75 1123.68,231.54"/>
    </edge>
    <edge id=":1191181735_5" function="internal">
        <lane id=":1191181735_5_0" index="0" speed="3.65" length="2.34" shape="1123.68,231.54 1123.32,232.35 1122.15,233.20"/>
    </edge>
    <edge id=":1191181738_0" function="internal">
        <lane id=":1191181738_0_0" index="0" speed="3.65" length="4.67" shape="1287.31,196.08 1286.07,195.33 1285.64,194.55 1286.00,193.73 1287.17,192.88"/>
    </edge>
    <edge id=":1191181753_0" function="internal">
        <lane id=":1191181753_0_0" index="0" speed="13.89" length="0.95" shape="1615.97,229.22 1615.69,229.19 1615.50,229.16 1615.31,229.11 1615.04,229.03"/>
    </edge>
    <edge id=":1191181753_1" function="internal">
        <lane id=":1191181753_1_0" index="0" speed="3.65" length="2.34" shape="1615.97,229.22 1614.86,228.30 1614.54,227.46"/>
    </edge>
    <edge id=":1191181753_4" function="internal">
        <lane id=":1191181753_4_0" index="0" speed="3.65" length="2.34" shape="1614.54,227.46 1615.02,226.71 1616.30,226.04"/>
    </edge>
    <edge id=":1191181753_2" function="internal">
        <lane id=":1191181753_2_0" index="0" speed="13.89" length="0.32" shape="1615.99,225.97 1616.08,226.00 1616.14,226.02 1616.21,226.03 1616.30,226.04"/>
    </edge>
    <edge id=":1191181753_3" function="internal">
        <lane id=":1191181753_3_0" index="0" speed="3.65" length="2.34" shape="1615.99,225.97 1616.90,227.09 1617.05,227.98"/>
    </edge>
    <edge id=":1191181753_5" function="internal">
        <lane id=":1191181753_5_0" index="0" speed="3.65" length="2.34" shape="1617.05,227.98 1616.43,228.62 1615.04,229.03"/>
    </edge>
    <edge id=":1191181765_0" function="internal">
        <lane id=":1191181765_0_0" index="0" speed="13.89" length="0.25" shape="1753.86,250.35 1753.61,250.32"/>
    </edge>
    <edge id=":1191181765_1" function="internal">
        <lane id=":1191181765_1_0" index="0" speed="3.65" length="2.34" shape="1753.86,250.35 1752.77,249.40 1752.47,248.56"/>
    </edge>
    <edge id=":1191181765_4" function="internal">
        <lane id=":1191181765_4_0" index="0" speed="3.65" length="2.34" shape="1752.47,248.56 1752.97,247.81 1754.27,247.18"/>
    </edge>
    <edge id=":1191181765_2" function="internal">
        <lane id=":1191181765_2_0" index="0" speed="13.89" length="0.31" shape="1753.96,247.14 1754.27,247.18"/>
    </edge>
    <edge id=":1191181765_3" function="internal">
        <lane id=":1191181765_3_0" index="0" speed="3.65" length="2.34" shape="1753.96,247.14 1755.06,248.07 1755.37,248.90"/>
    </edge>
    <edge id=":1191181765_5" function="internal">
        <lane id=":1191181765_5_0" index="0" speed="3.65" length="2.34" shape="1755.37,248.90 1754.89,249.66 1753.61,250.32"/>
    </edge>
    <edge id=":1191181766_0" function="internal">
        <lane id=":1191181766_0_0" index="0" speed="13.89" length="7.72" shape="1814.19,257.91 1806.50,257.18"/>
    </edge>
    <edge id=":1191181766_1" function="internal">
        <lane id=":1191181766_1_0" index="0" speed="13.89" length="7.73" shape="1814.19,257.91 1811.90,257.76 1810.34,257.60 1808.79,257.33 1806.55,256.85"/>
    </edge>
    <edge id=":1191181766_2" function="internal">
        <lane id=":1191181766_2_0" index="0" speed="3.65" length="2.34" shape="1814.19,257.91 1813.04,257.04 1812.69,256.22"/>
    </edge>
    <edge id=":1191181766_9" function="internal">
        <lane id=":1191181766_9_0" index="0" speed="3.65" length="2.34" shape="1812.69,256.22 1813.13,255.45 1814.38,254.72"/>
    </edge>
    <edge id=":1191181766_3" function="internal">
        <lane id=":1191181766_3_0" index="0" speed="13.89" length="7.50" shape="1806.97,253.67 1809.14,254.14 1810.64,254.41 1812.16,254.57 1814.38,254.72"/>
    </edge>
    <edge id=":1191181766_4" function="internal">
        <lane id=":1191181766_4_0" index="0" speed="5.93" length="15.66" shape="1806.97,253.67 1812.41,255.29 1814.12,256.69 1812.14,257.47 1806.50,257.18"/>
    </edge>
    <edge id=":1191181766_5" function="internal">
        <lane id=":1191181766_5_0" index="0" speed="3.65" length="4.69" shape="1806.97,253.67 1808.05,254.62 1808.35,255.47 1807.85,256.22 1806.55,256.85"/>
    </edge>
    <edge id=":1191181766_6" function="internal">
        <lane id=":1191181766_6_0" index="0" speed="13.89" length="7.49" shape="1806.92,254.00 1814.38,254.72"/>
    </edge>
    <edge id=":1191181766_7" function="internal">
        <lane id=":1191181766_7_0" index="0" speed="3.17" length="2.88" shape="1806.92,254.00 1806.55,256.85"/>
    </edge>
    <edge id=":1191181766_8" function="internal">
        <lane id=":1191181766_8_0" index="0" speed="3.65" length="2.34" shape="1806.92,254.00 1808.01,254.95 1808.30,255.80"/>
    </edge>
    <edge id=":1191181766_10" function="internal">
        <lane id=":1191181766_10_0" index="0" speed="3.65" length="2.34" shape="1808.30,255.80 1807.80,256.54 1806.50,257.18"/>
    </edge>
    <edge id=":208379618_0" function="internal">
        <lane id=":208379618_0_0" index="0" speed="30.56" length="0.14" shape="1945.29,294.48 1945.25,294.47 1945.23,294.46 1945.20,294.45 1945.16,294.44"/>
    </edge>
    <edge id=":208379618_1" function="internal">
        <lane id=":208379618_1_0" index="0" speed="3.65" length="2.34" shape="1945.29,294.48 1944.42,293.33 1944.30,292.45"/>
    </edge>
    <edge id=":208379618_4" function="internal">
        <lane id=":208379618_4_0" index="0" speed="3.65" length="2.34" shape="1944.30,292.45 1944.94,291.82 1946.34,291.46"/>
    </edge>
    <edge id=":208379618_2" function="internal">
        <lane id=":208379618_2_0" index="0" speed="30.56" length="0.43" shape="1945.93,291.33 1946.05,291.37 1946.14,291.39 1946.22,291.41 1946.34,291.46"/>
    </edge>
    <edge id=":208379618_3" function="internal">
        <lane id=":208379618_3_0" index="0" speed="3.65" length="2.34" shape="1945.93,291.33 1946.90,292.40 1947.10,293.27"/>
    </edge>
    <edge id=":208379618_5" function="internal">
        <lane id=":208379618_5_0" index="0" speed="3.65" length="2.34" shape="1947.10,293.27 1946.52,293.95 1945.16,294.44"/>
    </edge>
    <edge id=":268808971_0" function="internal">
        <lane id=":268808971_0_0" index="0" speed="13.89" length="7.96" shape="1780.64,307.18 1778.53,306.11 1777.07,305.42 1775.57,304.81 1773.34,304.02"/>
    </edge>
    <edge id=":268808971_1" function="internal">
        <lane id=":268808971_1_0" index="0" speed="5.98" length="15.68" shape="1780.64,307.18 1775.75,304.24 1774.40,302.46 1776.49,302.15 1781.92,303.65"/>
    </edge>
    <edge id=":268808971_2" function="internal">
        <lane id=":268808971_2_0" index="0" speed="3.66" length="4.71" shape="1780.64,307.18 1779.78,306.01 1779.67,305.12 1780.32,304.50 1781.74,304.15"/>
    </edge>
    <edge id=":268808971_3" function="internal">
        <lane id=":268808971_3_0" index="0" speed="13.89" length="7.94" shape="1780.83,306.66 1773.34,304.02"/>
    </edge>
    <edge id=":268808971_4" function="internal">
        <lane id=":268808971_4_0" index="0" speed="6.81" length="20.97" shape="1780.83,306.66 1788.19,309.12 1790.80,309.51 1788.65,307.86 1781.74,304.15"/>
    </edge>
    <edge id=":268808971_5" function="internal">
        <lane id=":268808971_5_0" index="0" speed="3.65" length="2.34" shape="1780.83,306.66 1779.97,305.50 1779.87,304.61"/>
    </edge>
    <edge id=":268808971_9" function="internal">
        <lane id=":268808971_9_0" index="0" speed="3.65" length="2.34" shape="1779.87,304.61 1780.52,304.00 1781.92,303.65"/>
    </edge>
    <edge id=":268808971_6" function="internal">
        <lane id=":268808971_6_0" index="0" speed="13.89" length="7.98" shape="1774.39,301.00 1781.92,303.65"/>
    </edge>
    <edge id=":268808971_7" function="internal">
        <lane id=":268808971_7_0" index="0" speed="13.89" length="8.00" shape="1774.39,301.00 1776.63,301.79 1778.15,302.39 1779.62,303.08 1781.74,304.15"/>
    </edge>
    <edge id=":268808971_8" function="internal">
        <lane id=":268808971_8_0" index="0" speed="3.65" length="2.34" shape="1774.39,301.00 1775.26,302.15 1775.38,303.04"/>
    </edge>
    <edge id=":268808971_10" function="internal">
        <lane id=":268808971_10_0" index="0" speed="3.65" length="2.34" shape="1775.38,303.04 1774.74,303.66 1773.34,304.02"/>
    </edge>
    <edge id=":268808973_0" function="internal">
        <lane id=":268808973_0_0" index="0" speed="30.56" length="7.59" shape="1507.85,244.05 1505.60,243.93 1504.06,243.88 1502.52,243.90 1500.27,243.98"/>
    </edge>
    <edge id=":268808973_1" function="internal">
        <lane id=":268808973_1_0" index="0" speed="22.22" length="7.60" shape="1507.85,244.05 1500.26,243.69"/>
    </edge>
    <edge id=":268808973_2" function="internal">
        <lane id=":268808973_2_0" index="0" speed="3.65" length="2.34" shape="1507.85,244.05 1506.70,243.19 1506.34,242.37"/>
    </edge>
    <edge id=":268808973_9" function="internal">
        <lane id=":268808973_9_0" index="0" speed="3.65" length="2.34" shape="1506.34,242.37 1506.79,241.59 1508.03,240.86"/>
    </edge>
    <edge id=":268808973_3" function="internal">
        <lane id=":268808973_3_0" index="0" speed="22.22" length="7.90" shape="1500.14,240.48 1508.03,240.86"/>
    </edge>
    <edge id=":268808973_4" function="internal">
        <lane id=":268808973_4_0" index="0" speed="5.93" length="15.66" shape="1500.14,240.48 1505.78,241.14 1507.70,242.24 1505.87,243.33 1500.27,243.98"/>
    </edge>
    <edge id=":268808973_5" function="internal">
        <lane id=":268808973_5_0" index="0" speed="3.65" length="4.69" shape="1500.14,240.48 1501.37,241.24 1501.80,242.03 1501.43,242.84 1500.26,243.69"/>
    </edge>
    <edge id=":268808973_6" function="internal">
        <lane id=":268808973_6_0" index="0" speed="30.56" length="7.88" shape="1500.15,240.78 1502.49,240.70 1504.09,240.68 1505.69,240.73 1508.03,240.86"/>
    </edge>
    <edge id=":268808973_7" function="internal">
        <lane id=":268808973_7_0" index="0" speed="3.18" length="2.91" shape="1500.15,240.78 1500.26,243.69"/>
    </edge>
    <edge id=":268808973_8" function="internal">
        <lane id=":268808973_8_0" index="0" speed="3.65" length="2.34" shape="1500.15,240.78 1501.38,241.54 1501.81,242.33"/>
    </edge>
    <edge id=":268808973_10" function="internal">
        <lane id=":268808973_10_0" index="0" speed="3.65" length="2.34" shape="1501.81,242.33 1501.44,243.14 1500.27,243.98"/>
    </edge>
    <edge id=":30949824_0" function="internal">
        <lane id=":30949824_0_0" index="0" speed="13.89" length="7.98" shape="1551.92,224.66 1544.00,223.73"/>
    </edge>
    <edge id=":30949824_1" function="internal">
        <lane id=":30949824_1_0" index="0" speed="13.89" length="8.00" shape="1551.92,224.66 1544.04,223.29"/>
    </edge>
    <edge id=":30949824_2" function="internal">
        <lane id=":30949824_2_0" index="0" speed="3.65" length="2.34" shape="1551.92,224.66 1550.84,223.71 1550.55,222.86"/>
    </edge>
    <edge id=":30949824_9" function="internal">
        <lane id=":30949824_9_0" index="0" speed="3.65" length="2.34" shape="1550.55,222.86 1551.05,222.12 1552.35,221.49"/>
    </edge>
    <edge id=":30949824_3" function="internal">
        <lane id=":30949824_3_0" index="0" speed="13.89" length="8.09" shape="1544.38,220.09 1552.35,221.49"/>
    </edge>
    <edge id=":30949824_4" function="internal">
        <lane id=":30949824_4_0" index="0" speed="5.96" length="15.67" shape="1544.38,220.09 1549.85,221.69 1551.59,223.08 1549.63,223.89 1544.00,223.73"/>
    </edge>
    <edge id=":30949824_5" function="internal">
        <lane id=":30949824_5_0" index="0" speed="3.66" length="4.70" shape="1544.38,220.09 1545.50,221.02 1545.81,221.86 1545.33,222.62 1544.04,223.29"/>
    </edge>
    <edge id=":30949824_6" function="internal">
        <lane id=":30949824_6_0" index="0" speed="13.89" length="8.07" shape="1544.33,220.55 1552.35,221.49"/>
    </edge>
    <edge id=":30949824_7" function="internal">
        <lane id=":30949824_7_0" index="0" speed="7.42" length="25.55" shape="1544.33,220.55 1534.87,219.75 1531.67,219.95 1534.72,221.13 1544.04,223.29"/>
    </edge>
    <edge id=":30949824_8" function="internal">
        <lane id=":30949824_8_0" index="0" speed="3.65" length="2.34" shape="1544.33,220.55 1545.44,221.47 1545.76,222.31"/>
    </edge>
    <edge id=":30949824_10" function="internal">
        <lane id=":30949824_10_0" index="0" speed="3.65" length="2.34" shape="1545.76,222.31 1545.27,223.06 1544.00,223.73"/>
    </edge>
    <edge id=":3254491905_0" function="internal">
        <lane id=":3254491905_0_0" index="0" speed="3.65" length="4.67" shape="2287.07,494.21 2287.56,495.56 2287.41,496.44 2286.61,496.85 2285.17,496.78"/>
    </edge>
    <edge id=":3652912999_0" function="internal">
        <lane id=":3652912999_0_0" index="0" speed="13.89" length="73.89" shape="697.74,248.31 624.18,255.32"/>
    </edge>
    <edge id=":3652912999_1" function="internal">
        <lane id=":3652912999_1_0" index="0" speed="13.89" length="73.86" shape="697.74,248.31 623.97,251.97"/>
    </edge>
    <edge id=":3652912999_2" function="internal">
        <lane id=":3652912999_2_0" index="0" speed="3.65" length="2.34" shape="697.74,248.31 696.50,247.56 696.07,246.78"/>
    </edge>
    <edge id=":3652912999_9" function="internal">
        <lane id=":3652912999_9_0" index="0" speed="3.65" length="2.34" shape="696.07,246.78 696.43,245.96 697.59,245.11"/>
    </edge>
    <edge id=":3652912999_3" function="internal">
        <lane id=":3652912999_3_0" index="0" speed="13.89" length="8.04" shape="689.56,245.59 697.59,245.11"/>
    </edge>
    <edge id=":3652912999_4" function="internal">
        <lane id=":3652912999_4_0" index="0" speed="11.46" length="65.90" shape="689.56,245.59 623.97,251.97"/>
    </edge>
    <edge id=":3652912999_5" function="internal">
        <lane id=":3652912999_5_0" index="0" speed="13.76" length="96.54" shape="689.56,245.59 676.87,272.54 661.74,283.14 644.18,277.40 624.18,255.32"/>
    </edge>
    <edge id=":3652912999_6" function="internal">
        <lane id=":3652912999_6_0" index="0" speed="13.89" length="73.87" shape="623.82,248.77 697.59,245.11"/>
    </edge>
    <edge id=":3652912999_7" function="internal">
        <lane id=":3652912999_7_0" index="0" speed="4.13" length="1.60" shape="623.82,248.77 623.90,250.37"/>
    </edge>
    <edge id=":3652912999_8" function="internal">
        <lane id=":3652912999_8_0" index="0" speed="3.65" length="2.34" shape="623.82,248.77 625.05,249.51 625.49,250.29"/>
    </edge>
    <edge id=":3652912999_10" function="internal">
        <lane id=":3652912999_10_0" index="0" speed="4.13" length="4.96" shape="623.90,250.37 624.18,255.32"/>
    </edge>
    <edge id=":3652912999_11" function="internal">
        <lane id=":3652912999_11_0" index="0" speed="3.65" length="2.34" shape="625.49,250.29 625.13,251.11 623.97,251.97"/>
    </edge>
    <edge id=":3989957416_0" function="internal">
        <lane id=":3989957416_0_0" index="0" speed="13.89" length="74.47" shape="1712.14,252.08 1637.92,246.06"/>
    </edge>
    <edge id=":3989957416_1" function="internal">
        <lane id=":3989957416_1_0" index="0" speed="13.89" length="74.62" shape="1712.14,252.08 1699.25,250.02 1675.36,245.85 1651.50,241.56 1638.65,239.16"/>
    </edge>
    <edge id=":3989957416_2" function="internal">
        <lane id=":3989957416_2_0" index="0" speed="3.65" length="2.34" shape="1712.14,252.08 1711.02,251.17 1710.70,250.34"/>
    </edge>
    <edge id=":3989957416_9" function="internal">
        <lane id=":3989957416_9_0" index="0" speed="3.65" length="2.34" shape="1710.70,250.34 1711.17,249.58 1712.44,248.89"/>
    </edge>
    <edge id=":3989957416_3" function="internal">
        <lane id=":3989957416_3_0" index="0" speed="13.89" length="74.39" shape="1639.18,236.00 1651.99,238.40 1675.78,242.67 1699.58,246.84 1712.44,248.89"/>
    </edge>
    <edge id=":3989957416_4" function="internal">
        <lane id=":3989957416_4_0" index="0" speed="6.57" length="19.35" shape="1639.18,236.00 1644.51,238.58 1645.95,242.13 1643.70,245.12 1637.92,246.06"/>
    </edge>
    <edge id=":3989957416_5" function="internal">
        <lane id=":3989957416_5_0" index="0" speed="3.65" length="4.68" shape="1639.18,236.00 1640.23,236.99 1640.50,237.85 1639.97,238.57 1638.65,239.16"/>
    </edge>
    <edge id=":3989957416_6" function="internal">
        <lane id=":3989957416_6_0" index="0" speed="7.80" length="28.14" shape="1638.18,242.87 1648.61,243.47 1652.17,243.06 1648.85,241.62 1638.65,239.16"/>
    </edge>
    <edge id=":3989957416_7" function="internal">
        <lane id=":3989957416_7_0" index="0" speed="13.89" length="74.50" shape="1638.18,242.87 1712.44,248.89"/>
    </edge>
    <edge id=":3989957416_8" function="internal">
        <lane id=":3989957416_8_0" index="0" speed="3.65" length="2.34" shape="1638.18,242.87 1639.31,243.76 1639.65,244.59"/>
    </edge>
    <edge id=":3989957416_10" function="internal">
        <lane id=":3989957416_10_0" index="0" speed="3.65" length="2.34" shape="1639.65,244.59 1639.18,245.35 1637.92,246.06"/>
    </edge>
    <edge id=":3990906726_0" function="internal">
        <lane id=":3990906726_0_0" index="0" speed="13.89" length="7.80" shape="1525.27,249.75 1517.48,249.89"/>
    </edge>
    <edge id=":3990906726_1" function="internal">
        <lane id=":3990906726_1_0" index="0" speed="5.89" length="15.65" shape="1525.27,249.75 1519.64,249.16 1517.75,248.05 1519.61,246.96 1525.22,246.41"/>
    </edge>
    <edge id=":3990906726_2" function="internal">